*SPEF "1.0"
*DESIGN "tau2020_asu"
*PROGRAM "RandomNets"
*T_UNIT 1 NS
*C_UNIT 1 FF
*R_UNIT 1 OHM

*PORTS 


*D_NET net_0 76.125
*CONN
*I I1:Y O
*I I2:A I
*CAP
1 I1:Y 38.0625
2 I2:A 38.0625
*RES
2 I1:Y I2:A 306.225
*END

*D_NET net_1 64.8
*CONN
*I I3:Y O
*I I4:A I
*CAP
1 I3:Y 32.4
2 I4:A 32.4
*RES
2 I3:Y I4:A 1084
*END

*D_NET net_2 197
*CONN
*I I5:Y O
*I I6:A I
*CAP
1 I5:Y 98.5
2 I6:A 98.5
*RES
2 I5:Y I6:A 2744.5
*END

*D_NET net_3 52
*CONN
*I I7:Y O
*I I8:A I
*CAP
1 I7:Y 26
2 I8:A 26
*RES
2 I7:Y I8:A 2850
*END

*D_NET net_4 198.2
*CONN
*I I10:A I
*I I9:Y O
*CAP
1 I9:Y 99.1
2 I10:A 99.1
*RES
2 I9:Y I10:A 2763.5
*END

*D_NET net_5 146
*CONN
*I I11:Y O
*I I12:A I
*CAP
1 I11:Y 73
2 I12:A 73
*RES
2 I11:Y I12:A 1020
*END

*D_NET net_6 12.3375
*CONN
*I I13:Y O
*I I14:A I
*CAP
1 I13:Y 6.16875
2 I14:A 6.16875
*RES
2 I13:Y I14:A 440.219
*END

*D_NET net_7 120
*CONN
*I I15:Y O
*I I16:A I
*CAP
1 I15:Y 60
2 I16:A 60
*RES
2 I15:Y I16:A 890
*END

*D_NET net_8 20.8438
*CONN
*I I17:Y O
*I I18:A I
*CAP
1 I17:Y 10.4219
2 I18:A 10.4219
*RES
2 I17:Y I18:A 295.169
*END

*D_NET net_9 103.8
*CONN
*I I19:Y O
*I I20:A I
*CAP
1 I19:Y 51.9
2 I20:A 51.9
*RES
2 I19:Y I20:A 10600
*END
